Version 4
SHEET 1 2360 3492
WIRE -640 32 -720 32
WIRE -544 32 -640 32
WIRE -496 32 -544 32
WIRE -160 32 -240 32
WIRE 1632 32 1072 32
WIRE 1776 32 1728 32
WIRE 1888 32 1776 32
WIRE 2016 32 1888 32
WIRE -160 48 -160 32
WIRE -1520 64 -1648 64
WIRE 1888 64 1888 32
WIRE -640 80 -640 32
WIRE 1072 144 1072 32
WIRE 1072 144 960 144
WIRE 1168 144 1072 144
WIRE 1456 144 1424 144
WIRE -1648 160 -1648 64
WIRE -544 160 -544 32
WIRE -496 160 -544 160
WIRE -160 160 -160 112
WIRE -160 160 -240 160
WIRE -96 160 -160 160
WIRE 128 160 -16 160
WIRE 272 160 128 160
WIRE 432 160 272 160
WIRE 1888 160 1888 128
WIRE -160 176 -160 160
WIRE 128 176 128 160
WIRE 272 192 272 160
WIRE -640 208 -640 144
WIRE 1168 224 1120 224
WIRE 1712 224 1712 80
WIRE 1712 224 1424 224
WIRE -160 256 -160 240
WIRE -1648 288 -1648 240
WIRE -496 288 -560 288
WIRE 128 288 128 256
WIRE 128 288 -240 288
WIRE 272 304 272 256
WIRE 1120 304 1120 224
WIRE 1168 304 1120 304
WIRE 128 352 128 288
WIRE 1120 352 1120 304
WIRE -560 384 -560 288
WIRE 128 464 128 432
WIRE 1632 560 1072 560
WIRE 1776 560 1776 32
WIRE 1776 560 1728 560
WIRE -1536 592 -1664 592
WIRE 1072 672 1072 560
WIRE 1072 672 688 672
WIRE 1168 672 1072 672
WIRE 1456 672 1424 672
WIRE -1664 688 -1664 592
WIRE 1168 752 1120 752
WIRE 1712 752 1712 608
WIRE 1712 752 1424 752
WIRE -1664 816 -1664 768
WIRE 1120 832 1120 752
WIRE 1168 832 1120 832
WIRE 1120 880 1120 832
WIRE 192 1296 -32 1296
WIRE 320 1296 192 1296
WIRE 416 1296 320 1296
WIRE 448 1296 416 1296
WIRE 544 1296 512 1296
WIRE 688 1296 544 1296
WIRE 192 1312 192 1296
WIRE 416 1376 416 1296
WIRE 544 1376 544 1296
WIRE 192 1424 192 1376
WIRE 320 1440 320 1296
WIRE 352 1440 320 1440
WIRE 688 1440 688 1360
WIRE 688 1440 608 1440
WIRE 720 1440 688 1440
WIRE 912 1440 800 1440
WIRE 1056 1440 912 1440
WIRE 1232 1440 1056 1440
WIRE 688 1456 688 1440
WIRE 688 1536 688 1520
WIRE 1056 1536 1056 1504
WIRE 1760 1536 1760 1440
WIRE 768 1568 608 1568
WIRE 816 1568 768 1568
WIRE 912 1568 912 1440
WIRE 912 1568 896 1568
WIRE 768 1584 768 1568
WIRE 416 1664 416 1648
WIRE 1760 1680 1760 1616
WIRE 768 1712 768 1664
WIRE 544 1808 544 1648
WIRE 160 2224 -64 2224
WIRE 288 2224 160 2224
WIRE 384 2224 288 2224
WIRE 656 2224 512 2224
WIRE 768 2224 656 2224
WIRE 880 2224 832 2224
WIRE 160 2240 160 2224
WIRE 384 2304 384 2224
WIRE 512 2304 512 2224
WIRE 160 2352 160 2304
WIRE 288 2368 288 2224
WIRE 320 2368 288 2368
WIRE 656 2368 656 2288
WIRE 656 2368 576 2368
WIRE 720 2368 656 2368
WIRE 880 2368 880 2224
WIRE 880 2368 800 2368
WIRE 1200 2368 880 2368
WIRE 656 2384 656 2368
WIRE 656 2464 656 2448
WIRE 320 2496 288 2496
WIRE 736 2496 576 2496
WIRE 784 2496 736 2496
WIRE 880 2496 880 2368
WIRE 880 2496 864 2496
WIRE 736 2512 736 2496
WIRE 880 2528 880 2496
WIRE 1728 2544 1728 2448
WIRE 384 2624 384 2576
WIRE 736 2640 736 2592
WIRE 880 2656 880 2592
WIRE 1728 2688 1728 2624
WIRE 512 2768 512 2576
FLAG -560 384 0
FLAG -160 256 0
FLAG 128 464 0
FLAG 272 304 0
FLAG -640 208 0
FLAG 432 160 OUT_5V_JACK
FLAG 1120 352 0
FLAG 1888 160 0
FLAG 2016 32 5V_OUT_SYSTEME
FLAG 1456 144 5V_OUT_SYSTEME
FLAG 1120 880 0
FLAG 1456 672 5V_OUT_SYSTEME
FLAG 960 144 OUT_5V_JACK
FLAG -1664 816 0
FLAG 768 1712 0
FLAG 544 1808 0
FLAG 192 1424 0
FLAG 688 1536 0
FLAG 736 2640 0
FLAG 880 2656 0
FLAG 512 2768 0
FLAG 160 2352 0
FLAG 656 2464 0
FLAG -32 1296 5V_OUT_SYSTEME
FLAG -64 2224 5V_OUT_SYSTEME
FLAG 1200 2368 OUT_3.3V
FLAG -1536 592 IN_5V_USB
FLAG 688 672 IN_5V_USB
FLAG -1648 288 0
FLAG -1520 64 IN_JACK_6_18V
FLAG -720 32 IN_JACK_6_18V
FLAG 1232 1440 OUT_1.8V
FLAG 1056 1536 0
FLAG 1760 1680 0
FLAG 1760 1440 OUT_1.8V
FLAG 1728 2688 0
FLAG 1728 2448 OUT_3.3V
FLAG 416 1808 0
FLAG 384 2768 0
SYMBOL PowerProducts\\ADP2300 -368 160 R0
SYMATTR InstName BUCK_01
SYMBOL cap -656 80 R0
WINDOW 3 30 48 Left 2
SYMATTR Value 4.7µF
SYMATTR InstName C1
SYMBOL cap -176 48 R0
WINDOW 3 34 54 Left 2
SYMATTR Value 0.1µF
SYMATTR InstName C2
SYMBOL schottky -144 240 R180
WINDOW 0 24 64 Left 2
WINDOW 3 -88 8 Left 2
SYMATTR InstName D1
SYMATTR Value 1N5819
SYMATTR Description Diode
SYMATTR Type diode
SYMBOL ind -112 176 R270
WINDOW 0 32 56 VTop 2
WINDOW 3 5 56 VBottom 2
SYMATTR InstName L1
SYMATTR Value 10µH
SYMBOL res 112 160 R0
SYMATTR InstName R3
SYMATTR Value 63K
SYMBOL res 112 336 R0
SYMATTR InstName R4
SYMATTR Value 12K
SYMBOL cap 256 192 R0
WINDOW 3 27 51 Left 2
SYMATTR Value 2.2µF
SYMATTR InstName C3
SYMBOL PowerProducts\\LTC4412 1296 224 R0
SYMATTR InstName POWER_MUX_01
SYMBOL pmos 1632 80 R270
WINDOW 3 20 -99 VRight 2
SYMATTR InstName M1
SYMATTR Value FDC638P
SYMBOL cap 1872 64 R0
SYMATTR InstName C4
SYMATTR Value 10µF
SYMBOL PowerProducts\\LTC4412 1296 752 R0
SYMATTR InstName POWER_MUX_02
SYMBOL pmos 1632 608 R270
WINDOW 3 -21 95 VRight 2
SYMATTR InstName M2
SYMATTR Value FDC638P
SYMBOL voltage -1664 672 R0
WINDOW 123 0 0 Left 0
WINDOW 39 0 0 Left 0
SYMATTR InstName IN_USB_5V
SYMATTR Value 5V
SYMBOL PowerProducts\\LT1936 480 1504 R0
SYMATTR InstName U1
SYMBOL diode 448 1312 R270
WINDOW 0 32 32 VTop 2
WINDOW 3 0 32 VBottom 2
SYMATTR InstName D2
SYMATTR Value 1N4148
SYMBOL cap 176 1312 R0
SYMATTR InstName C5
SYMATTR Value 4.7µ
SYMBOL cap 672 1296 R0
SYMATTR InstName C6
SYMATTR Value 0.22µ
SYMBOL schottky 704 1520 R180
WINDOW 0 24 64 Left 2
WINDOW 3 -82 5 Left 2
SYMATTR InstName D3
SYMATTR Value 1N5819
SYMATTR Description Diode
SYMATTR Type diode
SYMBOL ind 704 1456 R270
WINDOW 0 32 56 VTop 2
WINDOW 3 5 56 VBottom 2
SYMATTR InstName L2
SYMATTR Value 4.7µ
SYMBOL res 752 1568 R0
SYMATTR InstName R1
SYMATTR Value 20K
SYMBOL res 912 1552 R90
WINDOW 0 0 56 VBottom 2
WINDOW 3 32 56 VTop 2
SYMATTR InstName R2
SYMATTR Value 10K
SYMBOL PowerProducts\\LT1936 448 2432 R0
SYMATTR InstName U2
SYMBOL cap 144 2240 R0
WINDOW 0 -45 29 Left 2
SYMATTR InstName C8
SYMATTR Value 4.7µ
SYMBOL cap 640 2224 R0
WINDOW 0 -40 33 Left 2
SYMATTR InstName C9
SYMATTR Value 0.22µ
SYMBOL schottky 672 2448 R180
WINDOW 0 41 34 Left 2
WINDOW 3 -76 3 Left 2
SYMATTR InstName D5
SYMATTR Value 1N5819
SYMATTR Description Diode
SYMATTR Type diode
SYMBOL ind 704 2384 R270
WINDOW 0 32 56 VTop 2
WINDOW 3 5 56 VBottom 2
SYMATTR InstName L3
SYMATTR Value 10µ
SYMBOL res 720 2496 R0
WINDOW 0 -44 62 Left 2
SYMATTR InstName R5
SYMATTR Value 10K
SYMBOL res 880 2480 R90
WINDOW 0 0 56 VBottom 2
WINDOW 3 32 56 VTop 2
SYMATTR InstName R6
SYMATTR Value 17.5K
SYMBOL cap 864 2528 R0
WINDOW 0 52 34 Left 2
SYMATTR InstName C10
SYMATTR Value 47µ
SYMBOL diode 832 2208 R90
WINDOW 0 0 32 VBottom 2
WINDOW 3 32 32 VTop 2
SYMATTR InstName D4
SYMATTR Value 1N4148
SYMBOL voltage -1648 144 R0
WINDOW 123 0 0 Left 0
WINDOW 39 0 0 Left 0
SYMATTR InstName IN_JACK_6_18V
SYMATTR Value {V_IN}
SYMBOL cap 1040 1440 R0
WINDOW 0 -40 49 Left 2
WINDOW 3 40 38 Left 2
SYMATTR InstName C11
SYMATTR Value 22µ
SYMBOL res 1744 1520 R0
SYMATTR InstName LOAD1
SYMATTR Value 2R
SYMBOL res 1712 2528 R0
SYMATTR InstName LOAD2
SYMATTR Value 5R
SYMBOL res 400 1648 R0
WINDOW 0 -41 33 Left 2
WINDOW 3 -55 68 Left 2
SYMATTR InstName R7
SYMATTR Value 10K
SYMBOL cap 400 1744 R0
WINDOW 0 47 8 Left 2
WINDOW 3 41 34 Left 2
SYMATTR InstName C7
SYMATTR Value 2.2nF
SYMBOL res 368 2608 R0
WINDOW 0 -41 33 Left 2
WINDOW 3 -55 68 Left 2
SYMATTR InstName R8
SYMATTR Value 10K
SYMBOL cap 368 2704 R0
WINDOW 0 47 8 Left 2
WINDOW 3 41 34 Left 2
SYMATTR InstName C12
SYMATTR Value 2.2nF
TEXT -1032 680 Left 2 !.tran 0 10 0 1e-5
TEXT -1608 344 Left 2 !.step param V_IN 6 18 1
